* NGSPICE file created from gf180mcu_as_sc_mcu7t3v3__and2_2.ext - technology: gf180mcuD

.subckt gf180mcu_as_sc_mcu7t3v3__and2_2 VDD VNW VPW VSS B A Y
X0 VDD B a_28_68# VNW pfet_03v3 ad=0.3588p pd=1.9u as=0.3588p ps=1.9u w=1.38u l=0.28u
X1 a_172_68# A a_28_68# VPW nfet_03v3 ad=0.26p pd=1.52u as=0.44p ps=2.88u w=1u l=0.28u
X2 Y a_28_68# VDD VNW pfet_03v3 ad=0.3588p pd=1.9u as=0.3588p ps=1.9u w=1.38u l=0.28u
X3 VSS a_28_68# Y VPW nfet_03v3 ad=0.52p pd=3.04u as=0.26p ps=1.52u w=1u l=0.28u
X4 VDD a_28_68# Y VNW pfet_03v3 ad=0.7176p pd=3.8u as=0.3588p ps=1.9u w=1.38u l=0.28u
X5 Y a_28_68# VSS VPW nfet_03v3 ad=0.26p pd=1.52u as=0.26p ps=1.52u w=1u l=0.28u
X6 a_28_68# A VDD VNW pfet_03v3 ad=0.3588p pd=1.9u as=0.6072p ps=3.64u w=1.38u l=0.28u
X7 VSS B a_172_68# VPW nfet_03v3 ad=0.26p pd=1.52u as=0.26p ps=1.52u w=1u l=0.28u
.ends

* NGSPICE file created from gf180mcu_as_sc_mcu7t3v3__and2_4.ext - technology: gf180mcuD

.subckt gf180mcu_as_sc_mcu7t3v3__and2_4 VDD VNW VPW VSS B A Y
X0 VSS a_28_68# Y VPW nfet_03v3 ad=0.6p pd=3.2u as=0.26p ps=1.52u w=1u l=0.28u
X1 VDD B a_28_68# VNW pfet_03v3 ad=0.3588p pd=1.9u as=0.3588p ps=1.9u w=1.38u l=0.28u
X2 Y a_28_68# VDD VNW pfet_03v3 ad=0.3588p pd=1.9u as=0.3588p ps=1.9u w=1.38u l=0.28u
X3 a_172_68# A a_28_68# VPW nfet_03v3 ad=0.26p pd=1.52u as=0.44p ps=2.88u w=1u l=0.28u
X4 Y a_28_68# VSS VPW nfet_03v3 ad=0.26p pd=1.52u as=0.26p ps=1.52u w=1u l=0.28u
X5 Y a_28_68# VDD VNW pfet_03v3 ad=0.3588p pd=1.9u as=0.3588p ps=1.9u w=1.38u l=0.28u
X6 VDD a_28_68# Y VNW pfet_03v3 ad=0.828p pd=3.96u as=0.3588p ps=1.9u w=1.38u l=0.28u
X7 VSS a_28_68# Y VPW nfet_03v3 ad=0.26p pd=1.52u as=0.26p ps=1.52u w=1u l=0.28u
X8 VDD a_28_68# Y VNW pfet_03v3 ad=0.3588p pd=1.9u as=0.3588p ps=1.9u w=1.38u l=0.28u
X9 Y a_28_68# VSS VPW nfet_03v3 ad=0.26p pd=1.52u as=0.26p ps=1.52u w=1u l=0.28u
X10 a_28_68# A VDD VNW pfet_03v3 ad=0.3588p pd=1.9u as=0.6072p ps=3.64u w=1.38u l=0.28u
X11 VSS B a_172_68# VPW nfet_03v3 ad=0.26p pd=1.52u as=0.26p ps=1.52u w=1u l=0.28u
.ends

* NGSPICE file created from gf180mcu_as_sc_mcu7t3v3__ao21_2.ext - technology: gf180mcuD

.subckt gf180mcu_as_sc_mcu7t3v3__ao21_2 VDD VNW VPW VSS Y A B C
X0 VSS a_332_68# Y VPW nfet_03v3 ad=0.44p pd=2.88u as=0.3025p ps=1.605u w=1u l=0.28u
X1 a_28_440# B VDD VNW pfet_03v3 ad=0.3588p pd=1.9u as=0.3588p ps=1.9u w=1.38u l=0.28u
X2 a_172_68# A VSS VPW nfet_03v3 ad=0.26p pd=1.52u as=0.44p ps=2.88u w=1u l=0.28u
X3 a_332_68# C a_28_440# VNW pfet_03v3 ad=0.6072p pd=3.64u as=0.3588p ps=1.9u w=1.38u l=0.28u
X4 Y a_332_68# VDD VNW pfet_03v3 ad=0.41745p pd=1.985u as=0.6072p ps=3.64u w=1.38u l=0.28u
X5 VSS C a_332_68# VPW nfet_03v3 ad=0.58p pd=2.16u as=0.26p ps=1.52u w=1u l=0.28u
X6 Y a_332_68# VSS VPW nfet_03v3 ad=0.3025p pd=1.605u as=0.58p ps=2.16u w=1u l=0.28u
X7 VDD a_332_68# Y VNW pfet_03v3 ad=0.6072p pd=3.64u as=0.41745p ps=1.985u w=1.38u l=0.28u
X8 VDD A a_28_440# VNW pfet_03v3 ad=0.3588p pd=1.9u as=0.6072p ps=3.64u w=1.38u l=0.28u
X9 a_332_68# B a_172_68# VPW nfet_03v3 ad=0.26p pd=1.52u as=0.26p ps=1.52u w=1u l=0.28u
.ends

* NGSPICE file created from gf180mcu_as_sc_mcu7t3v3__ao21_4.ext - technology: gf180mcuD

.subckt gf180mcu_as_sc_mcu7t3v3__ao21_4 VDD VNW VPW VSS Y A B C
X0 VSS a_332_68# Y VPW nfet_03v3 ad=0.26p pd=1.52u as=0.3025p ps=1.605u w=1u l=0.28u
X1 a_28_440# B VDD VNW pfet_03v3 ad=0.3588p pd=1.9u as=0.3588p ps=1.9u w=1.38u l=0.28u
X2 Y a_332_68# VDD VNW pfet_03v3 ad=0.3588p pd=1.9u as=0.3588p ps=1.9u w=1.38u l=0.28u
X3 a_172_68# A VSS VPW nfet_03v3 ad=0.26p pd=1.52u as=0.44p ps=2.88u w=1u l=0.28u
X4 a_332_68# C a_28_440# VNW pfet_03v3 ad=0.6072p pd=3.64u as=0.3588p ps=1.9u w=1.38u l=0.28u
X5 Y a_332_68# VDD VNW pfet_03v3 ad=0.41745p pd=1.985u as=0.6072p ps=3.64u w=1.38u l=0.28u
X6 VDD a_332_68# Y VNW pfet_03v3 ad=0.6279p pd=3.67u as=0.3588p ps=1.9u w=1.38u l=0.28u
X7 VSS a_332_68# Y VPW nfet_03v3 ad=0.455p pd=2.91u as=0.26p ps=1.52u w=1u l=0.28u
X8 VSS C a_332_68# VPW nfet_03v3 ad=0.58p pd=2.16u as=0.26p ps=1.52u w=1u l=0.28u
X9 Y a_332_68# VSS VPW nfet_03v3 ad=0.26p pd=1.52u as=0.26p ps=1.52u w=1u l=0.28u
X10 Y a_332_68# VSS VPW nfet_03v3 ad=0.3025p pd=1.605u as=0.58p ps=2.16u w=1u l=0.28u
X11 VDD a_332_68# Y VNW pfet_03v3 ad=0.3588p pd=1.9u as=0.41745p ps=1.985u w=1.38u l=0.28u
X12 VDD A a_28_440# VNW pfet_03v3 ad=0.3588p pd=1.9u as=0.6072p ps=3.64u w=1.38u l=0.28u
X13 a_332_68# B a_172_68# VPW nfet_03v3 ad=0.26p pd=1.52u as=0.26p ps=1.52u w=1u l=0.28u
.ends

* NGSPICE file created from gf180mcu_as_sc_mcu7t3v3__ao22_2.ext - technology: gf180mcuD

.subckt gf180mcu_as_sc_mcu7t3v3__ao22_2 VDD VNW VPW VSS A B C D Y
X0 a_620_68# C a_28_440# VPW nfet_03v3 ad=0.26p pd=1.52u as=0.44p ps=2.88u w=1u l=0.28u
X1 a_28_440# B a_172_440# VNW pfet_03v3 ad=0.6072p pd=3.64u as=0.3588p ps=1.9u w=1.38u l=0.28u
X2 a_172_440# C VDD VNW pfet_03v3 ad=0.3588p pd=1.9u as=0.6072p ps=3.64u w=1.38u l=0.28u
X3 a_172_68# A VSS VPW nfet_03v3 ad=0.26p pd=1.52u as=0.44p ps=2.88u w=1u l=0.28u
X4 VDD a_28_440# Y VNW pfet_03v3 ad=0.7176p pd=3.8u as=0.3588p ps=1.9u w=1.38u l=0.28u
X5 VSS a_28_440# Y VPW nfet_03v3 ad=0.52p pd=3.04u as=0.26p ps=1.52u w=1u l=0.28u
X6 VDD D a_172_440# VNW pfet_03v3 ad=0.3588p pd=1.9u as=0.3588p ps=1.9u w=1.38u l=0.28u
X7 Y a_28_440# VDD VNW pfet_03v3 ad=0.3588p pd=1.9u as=0.3588p ps=1.9u w=1.38u l=0.28u
X8 Y a_28_440# VSS VPW nfet_03v3 ad=0.26p pd=1.52u as=0.26p ps=1.52u w=1u l=0.28u
X9 VSS D a_620_68# VPW nfet_03v3 ad=0.26p pd=1.52u as=0.26p ps=1.52u w=1u l=0.28u
X10 a_172_440# A a_28_440# VNW pfet_03v3 ad=0.3588p pd=1.9u as=0.6072p ps=3.64u w=1.38u l=0.28u
X11 a_28_440# B a_172_68# VPW nfet_03v3 ad=0.44p pd=2.88u as=0.26p ps=1.52u w=1u l=0.28u
.ends

* NGSPICE file created from gf180mcu_as_sc_mcu7t3v3__ao22_4.ext - technology: gf180mcuD

.subckt gf180mcu_as_sc_mcu7t3v3__ao22_4 VDD VNW VPW VSS A B C D Y
X0 a_620_68# C a_28_440# VPW nfet_03v3 ad=0.26p pd=1.52u as=0.44p ps=2.88u w=1u l=0.28u
X1 a_28_440# B a_172_440# VNW pfet_03v3 ad=0.6072p pd=3.64u as=0.3588p ps=1.9u w=1.38u l=0.28u
X2 a_172_440# C VDD VNW pfet_03v3 ad=0.3588p pd=1.9u as=0.6072p ps=3.64u w=1.38u l=0.28u
X3 Y a_28_440# VSS VPW nfet_03v3 ad=0.26p pd=1.52u as=0.26p ps=1.52u w=1u l=0.28u
X4 a_172_68# A VSS VPW nfet_03v3 ad=0.26p pd=1.52u as=0.44p ps=2.88u w=1u l=0.28u
X5 VDD a_28_440# Y VNW pfet_03v3 ad=0.3588p pd=1.9u as=0.3588p ps=1.9u w=1.38u l=0.28u
X6 VSS a_28_440# Y VPW nfet_03v3 ad=0.26p pd=1.52u as=0.26p ps=1.52u w=1u l=0.28u
X7 VDD D a_172_440# VNW pfet_03v3 ad=0.3588p pd=1.9u as=0.3588p ps=1.9u w=1.38u l=0.28u
X8 Y a_28_440# VDD VNW pfet_03v3 ad=0.3588p pd=1.9u as=0.3588p ps=1.9u w=1.38u l=0.28u
X9 Y a_28_440# VDD VNW pfet_03v3 ad=0.3588p pd=1.9u as=0.3588p ps=1.9u w=1.38u l=0.28u
X10 Y a_28_440# VSS VPW nfet_03v3 ad=0.26p pd=1.52u as=0.26p ps=1.52u w=1u l=0.28u
X11 VDD a_28_440# Y VNW pfet_03v3 ad=0.6072p pd=3.64u as=0.3588p ps=1.9u w=1.38u l=0.28u
X12 VSS D a_620_68# VPW nfet_03v3 ad=0.26p pd=1.52u as=0.26p ps=1.52u w=1u l=0.28u
X13 a_172_440# A a_28_440# VNW pfet_03v3 ad=0.3588p pd=1.9u as=0.6072p ps=3.64u w=1.38u l=0.28u
X14 VSS a_28_440# Y VPW nfet_03v3 ad=0.44p pd=2.88u as=0.26p ps=1.52u w=1u l=0.28u
X15 a_28_440# B a_172_68# VPW nfet_03v3 ad=0.44p pd=2.88u as=0.26p ps=1.52u w=1u l=0.28u
.ends

* NGSPICE file created from gf180mcu_as_sc_mcu7t3v3__ao31_2.ext - technology: gf180mcuD

.subckt gf180mcu_as_sc_mcu7t3v3__ao31_2 VDD VNW VPW VSS D A B C Y
X0 VSS a_28_440# Y VPW nfet_03v3 ad=0.44p pd=2.88u as=0.26p ps=1.52u w=1u l=0.28u
X1 VDD A a_172_440# VNW pfet_03v3 ad=0.3588p pd=1.9u as=0.3588p ps=1.9u w=1.38u l=0.28u
X2 Y a_28_440# VDD VNW pfet_03v3 ad=0.3588p pd=1.9u as=0.3588p ps=1.9u w=1.38u l=0.28u
X3 a_28_440# D VSS VPW nfet_03v3 ad=0.26p pd=1.52u as=0.44p ps=2.88u w=1u l=0.28u
X4 Y a_28_440# VSS VPW nfet_03v3 ad=0.26p pd=1.52u as=0.26p ps=1.52u w=1u l=0.28u
X5 a_172_440# B VDD VNW pfet_03v3 ad=0.3588p pd=1.9u as=0.3588p ps=1.9u w=1.38u l=0.28u
X6 VDD a_28_440# Y VNW pfet_03v3 ad=0.6072p pd=3.64u as=0.3588p ps=1.9u w=1.38u l=0.28u
X7 VSS C a_492_68# VPW nfet_03v3 ad=0.26p pd=1.52u as=0.26p ps=1.52u w=1u l=0.28u
X8 VDD C a_172_440# VNW pfet_03v3 ad=0.3588p pd=1.9u as=0.3588p ps=1.9u w=1.38u l=0.28u
X9 a_492_68# B a_332_68# VPW nfet_03v3 ad=0.26p pd=1.52u as=0.26p ps=1.52u w=1u l=0.28u
X10 a_172_440# D a_28_440# VNW pfet_03v3 ad=0.3588p pd=1.9u as=0.6072p ps=3.64u w=1.38u l=0.28u
X11 a_332_68# A a_28_440# VPW nfet_03v3 ad=0.26p pd=1.52u as=0.26p ps=1.52u w=1u l=0.28u
.ends

* NGSPICE file created from gf180mcu_as_sc_mcu7t3v3__ao31_4.ext - technology: gf180mcuD

.subckt gf180mcu_as_sc_mcu7t3v3__ao31_4 VDD VNW VPW VSS D A B C Y
X0 VSS a_28_440# Y VPW nfet_03v3 ad=0.26p pd=1.52u as=0.26p ps=1.52u w=1u l=0.28u
X1 VDD A a_172_440# VNW pfet_03v3 ad=0.3588p pd=1.9u as=0.3588p ps=1.9u w=1.38u l=0.28u
X2 Y a_28_440# VDD VNW pfet_03v3 ad=0.3588p pd=1.9u as=0.3588p ps=1.9u w=1.38u l=0.28u
X3 a_28_440# D VSS VPW nfet_03v3 ad=0.26p pd=1.52u as=0.44p ps=2.88u w=1u l=0.28u
X4 VDD a_28_440# Y VNW pfet_03v3 ad=0.6072p pd=3.64u as=0.3588p ps=1.9u w=1.38u l=0.28u
X5 Y a_28_440# VSS VPW nfet_03v3 ad=0.26p pd=1.52u as=0.26p ps=1.52u w=1u l=0.28u
X6 a_172_440# B VDD VNW pfet_03v3 ad=0.3588p pd=1.9u as=0.3588p ps=1.9u w=1.38u l=0.28u
X7 VDD a_28_440# Y VNW pfet_03v3 ad=0.3588p pd=1.9u as=0.3588p ps=1.9u w=1.38u l=0.28u
X8 VSS C a_492_68# VPW nfet_03v3 ad=0.26p pd=1.52u as=0.26p ps=1.52u w=1u l=0.28u
X9 VSS a_28_440# Y VPW nfet_03v3 ad=0.44p pd=2.88u as=0.26p ps=1.52u w=1u l=0.28u
X10 VDD C a_172_440# VNW pfet_03v3 ad=0.3588p pd=1.9u as=0.3588p ps=1.9u w=1.38u l=0.28u
X11 a_492_68# B a_332_68# VPW nfet_03v3 ad=0.26p pd=1.52u as=0.26p ps=1.52u w=1u l=0.28u
X12 Y a_28_440# VDD VNW pfet_03v3 ad=0.3588p pd=1.9u as=0.3588p ps=1.9u w=1.38u l=0.28u
X13 Y a_28_440# VSS VPW nfet_03v3 ad=0.26p pd=1.52u as=0.26p ps=1.52u w=1u l=0.28u
X14 a_172_440# D a_28_440# VNW pfet_03v3 ad=0.3588p pd=1.9u as=0.6072p ps=3.64u w=1.38u l=0.28u
X15 a_332_68# A a_28_440# VPW nfet_03v3 ad=0.26p pd=1.52u as=0.26p ps=1.52u w=1u l=0.28u
.ends

* NGSPICE file created from gf180mcu_as_sc_mcu7t3v3__aoi21_2.ext - technology: gf180mcuD

.subckt gf180mcu_as_sc_mcu7t3v3__aoi21_2 VDD VNW VPW VSS Y C B A
X0 VSS C Y VPW nfet_03v3 ad=0.45p pd=2.9u as=0.26p ps=1.52u w=1u l=0.28u
X1 a_28_440# B VDD VNW pfet_03v3 ad=0.3588p pd=1.9u as=0.3588p ps=1.9u w=1.38u l=0.28u
X2 Y C a_28_440# VNW pfet_03v3 ad=0.3588p pd=1.9u as=0.3588p ps=1.9u w=1.38u l=0.28u
X3 a_172_68# A VSS VPW nfet_03v3 ad=0.26p pd=1.52u as=0.44p ps=2.88u w=1u l=0.28u
X4 Y C VSS VPW nfet_03v3 ad=0.26p pd=1.52u as=0.26p ps=1.52u w=1u l=0.28u
X5 VDD B a_28_440# VNW pfet_03v3 ad=0.3588p pd=1.9u as=0.3588p ps=1.9u w=1.38u l=0.28u
X6 a_28_440# C Y VNW pfet_03v3 ad=0.621p pd=3.66u as=0.3588p ps=1.9u w=1.38u l=0.28u
X7 VSS A a_492_68# VPW nfet_03v3 ad=0.26p pd=1.52u as=0.26p ps=1.52u w=1u l=0.28u
X8 a_28_440# A VDD VNW pfet_03v3 ad=0.3588p pd=1.9u as=0.3588p ps=1.9u w=1.38u l=0.28u
X9 a_492_68# B Y VPW nfet_03v3 ad=0.26p pd=1.52u as=0.26p ps=1.52u w=1u l=0.28u
X10 VDD A a_28_440# VNW pfet_03v3 ad=0.3588p pd=1.9u as=0.6072p ps=3.64u w=1.38u l=0.28u
X11 Y B a_172_68# VPW nfet_03v3 ad=0.26p pd=1.52u as=0.26p ps=1.52u w=1u l=0.28u
.ends

* NGSPICE file created from gf180mcu_as_sc_mcu7t3v3__aoi21_4.ext - technology: gf180mcuD

.subckt gf180mcu_as_sc_mcu7t3v3__aoi21_4 VDD VNW VPW VSS Y C B A
X0 Y A a_812_68# VPW nfet_03v3 ad=0.26p pd=1.52u as=0.26p ps=1.52u w=1u l=0.28u
X1 a_28_440# C Y VNW pfet_03v3 ad=0.3588p pd=1.9u as=0.3588p ps=1.9u w=1.38u l=0.28u
X2 VDD B a_28_440# VNW pfet_03v3 ad=0.3588p pd=1.9u as=0.3588p ps=1.9u w=1.38u l=0.28u
X3 Y C VSS VPW nfet_03v3 ad=0.26p pd=1.52u as=0.44p ps=2.88u w=1u l=0.28u
X4 VSS B a_812_68# VPW nfet_03v3 ad=0.26p pd=1.52u as=0.26p ps=1.52u w=1u l=0.28u
X5 a_28_440# A VDD VNW pfet_03v3 ad=0.3588p pd=1.9u as=0.3588p ps=1.9u w=1.38u l=0.28u
X6 VDD B a_28_440# VNW pfet_03v3 ad=0.3588p pd=1.9u as=0.3588p ps=1.9u w=1.38u l=0.28u
X7 a_812_68# B VSS VPW nfet_03v3 ad=0.26p pd=1.52u as=0.26p ps=1.52u w=1u l=0.28u
X8 VDD A a_28_440# VNW pfet_03v3 ad=0.3588p pd=1.9u as=0.3588p ps=1.9u w=1.38u l=0.28u
X9 a_28_440# B VDD VNW pfet_03v3 ad=0.6348p pd=3.68u as=0.3588p ps=1.9u w=1.38u l=0.28u
X10 a_812_68# A Y VPW nfet_03v3 ad=0.26p pd=1.52u as=0.26p ps=1.52u w=1u l=0.28u
X11 Y C a_28_440# VNW pfet_03v3 ad=0.3588p pd=1.9u as=0.3588p ps=1.9u w=1.38u l=0.28u
X12 a_28_440# A VDD VNW pfet_03v3 ad=0.3588p pd=1.9u as=0.3588p ps=1.9u w=1.38u l=0.28u
X13 VSS C Y VPW nfet_03v3 ad=0.26p pd=1.52u as=0.26p ps=1.52u w=1u l=0.28u
X14 Y A a_812_68# VPW nfet_03v3 ad=0.26p pd=1.52u as=0.26p ps=1.52u w=1u l=0.28u
X15 a_28_440# C Y VNW pfet_03v3 ad=0.3588p pd=1.9u as=0.3588p ps=1.9u w=1.38u l=0.28u
X16 Y C VSS VPW nfet_03v3 ad=0.26p pd=1.52u as=0.26p ps=1.52u w=1u l=0.28u
X17 VSS B a_812_68# VPW nfet_03v3 ad=0.46p pd=2.92u as=0.26p ps=1.52u w=1u l=0.28u
X18 VDD A a_28_440# VNW pfet_03v3 ad=0.3588p pd=1.9u as=0.3588p ps=1.9u w=1.38u l=0.28u
X19 a_28_440# B VDD VNW pfet_03v3 ad=0.3588p pd=1.9u as=0.3588p ps=1.9u w=1.38u l=0.28u
X20 a_812_68# A Y VPW nfet_03v3 ad=0.26p pd=1.52u as=0.26p ps=1.52u w=1u l=0.28u
X21 Y C a_28_440# VNW pfet_03v3 ad=0.3588p pd=1.9u as=0.6072p ps=3.64u w=1.38u l=0.28u
X22 VSS C Y VPW nfet_03v3 ad=0.26p pd=1.52u as=0.26p ps=1.52u w=1u l=0.28u
X23 a_812_68# B VSS VPW nfet_03v3 ad=0.26p pd=1.52u as=0.26p ps=1.52u w=1u l=0.28u
.ends

* NGSPICE file created from gf180mcu_as_sc_mcu7t3v3__aoi22_2.ext - technology: gf180mcuD

.subckt gf180mcu_as_sc_mcu7t3v3__aoi22_2 VDD VNW VPW VSS Y A B C D
X0 a_172_440# D VDD VNW pfet_03v3 ad=0.7797p pd=3.89u as=0.3588p ps=1.9u w=1.38u l=0.28u
X1 Y A a_172_440# VNW pfet_03v3 ad=0.3588p pd=1.9u as=0.3588p ps=1.9u w=1.38u l=0.28u
X2 VSS A a_28_68# VPW nfet_03v3 ad=0.26p pd=1.52u as=0.44p ps=2.88u w=1u l=0.28u
X3 a_803_68# D VSS VPW nfet_03v3 ad=0.565p pd=3.13u as=0.26p ps=1.52u w=1u l=0.28u
X4 a_172_440# C VDD VNW pfet_03v3 ad=0.3588p pd=1.9u as=0.3588p ps=1.9u w=1.38u l=0.28u
X5 VSS D a_803_68# VPW nfet_03v3 ad=0.26p pd=1.52u as=0.26p ps=1.52u w=1u l=0.28u
X6 a_172_440# B Y VNW pfet_03v3 ad=0.3588p pd=1.9u as=0.3588p ps=1.9u w=1.38u l=0.28u
X7 a_28_68# B Y VPW nfet_03v3 ad=0.44p pd=2.88u as=0.26p ps=1.52u w=1u l=0.28u
X8 a_803_68# C Y VPW nfet_03v3 ad=0.26p pd=1.52u as=0.26p ps=1.52u w=1u l=0.28u
X9 Y B a_172_440# VNW pfet_03v3 ad=0.6072p pd=3.64u as=0.3588p ps=1.9u w=1.38u l=0.28u
X10 Y B a_28_68# VPW nfet_03v3 ad=0.26p pd=1.52u as=0.26p ps=1.52u w=1u l=0.28u
X11 VDD D a_172_440# VNW pfet_03v3 ad=0.3588p pd=1.9u as=0.3588p ps=1.9u w=1.38u l=0.28u
X12 VDD C a_172_440# VNW pfet_03v3 ad=0.3588p pd=1.9u as=0.6072p ps=3.64u w=1.38u l=0.28u
X13 a_172_440# A Y VNW pfet_03v3 ad=0.3588p pd=1.9u as=0.6072p ps=3.64u w=1.38u l=0.28u
X14 a_28_68# A VSS VPW nfet_03v3 ad=0.26p pd=1.52u as=0.26p ps=1.52u w=1u l=0.28u
X15 Y C a_803_68# VPW nfet_03v3 ad=0.26p pd=1.52u as=0.44p ps=2.88u w=1u l=0.28u
.ends

* NGSPICE file created from gf180mcu_as_sc_mcu7t3v3__aoi22_4.ext - technology: gf180mcuD

.subckt gf180mcu_as_sc_mcu7t3v3__aoi22_4 VDD VNW VPW VSS Y A B C D
X0 a_28_440# C VDD VNW pfet_03v3 ad=0.3588p pd=1.9u as=0.3588p ps=1.9u w=1.38u l=0.28u
X1 a_28_68# B Y VPW nfet_03v3 ad=0.26p pd=1.52u as=0.26p ps=1.52u w=1u l=0.28u
X2 a_28_440# A Y VNW pfet_03v3 ad=0.3588p pd=1.9u as=0.3588p ps=1.9u w=1.38u l=0.28u
X3 Y B a_28_440# VNW pfet_03v3 ad=0.3588p pd=1.9u as=0.3588p ps=1.9u w=1.38u l=0.28u
X4 VDD D a_28_440# VNW pfet_03v3 ad=0.3588p pd=1.9u as=0.3588p ps=1.9u w=1.38u l=0.28u
X5 VSS A a_28_68# VPW nfet_03v3 ad=0.26p pd=1.52u as=0.44p ps=2.88u w=1u l=0.28u
X6 VSS D a_1436_68# VPW nfet_03v3 ad=0.26p pd=1.52u as=0.26p ps=1.52u w=1u l=0.28u
X7 a_28_440# D VDD VNW pfet_03v3 ad=0.6072p pd=3.64u as=0.3588p ps=1.9u w=1.38u l=0.28u
X8 a_28_440# B Y VNW pfet_03v3 ad=0.8004p pd=2.54u as=0.3588p ps=1.9u w=1.38u l=0.28u
X9 VDD C a_28_440# VNW pfet_03v3 ad=0.3588p pd=1.9u as=0.8004p ps=2.54u w=1.38u l=0.28u
X10 Y C a_1436_68# VPW nfet_03v3 ad=0.26p pd=1.52u as=0.26p ps=1.52u w=1u l=0.28u
X11 Y B a_28_68# VPW nfet_03v3 ad=0.26p pd=1.52u as=0.26p ps=1.52u w=1u l=0.28u
X12 a_1436_68# C Y VPW nfet_03v3 ad=0.26p pd=1.52u as=0.26p ps=1.52u w=1u l=0.28u
X13 a_28_440# C VDD VNW pfet_03v3 ad=0.3588p pd=1.9u as=0.3588p ps=1.9u w=1.38u l=0.28u
X14 Y A a_28_440# VNW pfet_03v3 ad=0.3588p pd=1.9u as=0.3588p ps=1.9u w=1.38u l=0.28u
X15 a_1436_68# C Y VPW nfet_03v3 ad=0.26p pd=1.52u as=0.26p ps=1.52u w=1u l=0.28u
X16 a_1436_68# D VSS VPW nfet_03v3 ad=0.44p pd=2.88u as=0.26p ps=1.52u w=1u l=0.28u
X17 a_28_440# B Y VNW pfet_03v3 ad=0.3588p pd=1.9u as=0.3588p ps=1.9u w=1.38u l=0.28u
X18 a_28_68# A VSS VPW nfet_03v3 ad=0.26p pd=1.52u as=0.26p ps=1.52u w=1u l=0.28u
X19 a_28_440# D VDD VNW pfet_03v3 ad=0.3588p pd=1.9u as=0.3588p ps=1.9u w=1.38u l=0.28u
X20 a_28_68# B Y VPW nfet_03v3 ad=0.44p pd=2.88u as=0.26p ps=1.52u w=1u l=0.28u
X21 a_28_440# A Y VNW pfet_03v3 ad=0.3588p pd=1.9u as=0.3588p ps=1.9u w=1.38u l=0.28u
X22 Y C a_1436_68# VPW nfet_03v3 ad=0.26p pd=1.52u as=0.44p ps=2.88u w=1u l=0.28u
X23 VDD D a_28_440# VNW pfet_03v3 ad=0.3588p pd=1.9u as=0.3588p ps=1.9u w=1.38u l=0.28u
X24 VSS A a_28_68# VPW nfet_03v3 ad=0.26p pd=1.52u as=0.26p ps=1.52u w=1u l=0.28u
X25 VSS D a_1436_68# VPW nfet_03v3 ad=0.26p pd=1.52u as=0.26p ps=1.52u w=1u l=0.28u
X26 Y B a_28_440# VNW pfet_03v3 ad=0.3588p pd=1.9u as=0.3588p ps=1.9u w=1.38u l=0.28u
X27 VDD C a_28_440# VNW pfet_03v3 ad=0.3588p pd=1.9u as=0.3588p ps=1.9u w=1.38u l=0.28u
X28 Y B a_28_68# VPW nfet_03v3 ad=0.26p pd=1.52u as=0.26p ps=1.52u w=1u l=0.28u
X29 Y A a_28_440# VNW pfet_03v3 ad=0.3588p pd=1.9u as=0.6072p ps=3.64u w=1.38u l=0.28u
X30 a_1436_68# D VSS VPW nfet_03v3 ad=0.26p pd=1.52u as=0.26p ps=1.52u w=1u l=0.28u
X31 a_28_68# A VSS VPW nfet_03v3 ad=0.26p pd=1.52u as=0.26p ps=1.52u w=1u l=0.28u
.ends

* NGSPICE file created from gf180mcu_as_sc_mcu7t3v3__aoi31_2.ext - technology: gf180mcuD

.subckt gf180mcu_as_sc_mcu7t3v3__aoi31_2 VDD VNW VPW VSS A B C Y D
X0 a_28_440# A VDD VNW pfet_03v3 ad=0.3588p pd=1.9u as=0.3588p ps=1.9u w=1.38u l=0.28u
X1 VSS D Y VPW nfet_03v3 ad=0.2625p pd=1.525u as=0.26p ps=1.52u w=1u l=0.28u
X2 VSS A a_28_68# VPW nfet_03v3 ad=0.26p pd=1.52u as=0.44p ps=2.88u w=1u l=0.28u
X3 a_28_440# C VDD VNW pfet_03v3 ad=0.3588p pd=1.9u as=0.3588p ps=1.9u w=1.38u l=0.28u
X4 Y C a_492_68# VPW nfet_03v3 ad=0.26p pd=1.52u as=0.26p ps=1.52u w=1u l=0.28u
X5 VDD B a_28_440# VNW pfet_03v3 ad=0.3588p pd=1.9u as=0.3588p ps=1.9u w=1.38u l=0.28u
X6 a_28_68# B a_492_68# VPW nfet_03v3 ad=0.44p pd=2.88u as=0.26p ps=1.52u w=1u l=0.28u
X7 Y D a_28_440# VNW pfet_03v3 ad=0.36225p pd=1.905u as=0.3588p ps=1.9u w=1.38u l=0.28u
X8 a_28_440# B VDD VNW pfet_03v3 ad=0.8004p pd=2.54u as=0.3588p ps=1.9u w=1.38u l=0.28u
X9 VDD C a_28_440# VNW pfet_03v3 ad=0.3588p pd=1.9u as=0.8004p ps=2.54u w=1.38u l=0.28u
X10 a_492_68# C Y VPW nfet_03v3 ad=0.26p pd=1.52u as=0.44p ps=2.88u w=1u l=0.28u
X11 a_492_68# B a_28_68# VPW nfet_03v3 ad=0.26p pd=1.52u as=0.26p ps=1.52u w=1u l=0.28u
X12 Y D VSS VPW nfet_03v3 ad=0.44p pd=2.88u as=0.2625p ps=1.525u w=1u l=0.28u
X13 VDD A a_28_440# VNW pfet_03v3 ad=0.3588p pd=1.9u as=0.6072p ps=3.64u w=1.38u l=0.28u
X14 a_28_440# D Y VNW pfet_03v3 ad=0.6072p pd=3.64u as=0.36225p ps=1.905u w=1.38u l=0.28u
X15 a_28_68# A VSS VPW nfet_03v3 ad=0.26p pd=1.52u as=0.26p ps=1.52u w=1u l=0.28u
.ends

* NGSPICE file created from gf180mcu_as_sc_mcu7t3v3__aoi31_4.ext - technology: gf180mcuD

.subckt gf180mcu_as_sc_mcu7t3v3__aoi31_4 VDD VNW VPW VSS A B C D Y
X0 a_28_440# C VDD VNW pfet_03v3 ad=0.3588p pd=1.9u as=0.3588p ps=1.9u w=1.38u l=0.28u
X1 a_28_68# B a_812_68# VPW nfet_03v3 ad=0.26p pd=1.52u as=0.26p ps=1.52u w=1u l=0.28u
X2 a_28_440# A VDD VNW pfet_03v3 ad=0.3588p pd=1.9u as=0.3588p ps=1.9u w=1.38u l=0.28u
X3 VDD B a_28_440# VNW pfet_03v3 ad=0.3588p pd=1.9u as=0.3588p ps=1.9u w=1.38u l=0.28u
X4 Y D a_28_440# VNW pfet_03v3 ad=0.3588p pd=1.9u as=0.3588p ps=1.9u w=1.38u l=0.28u
X5 VSS A a_28_68# VPW nfet_03v3 ad=0.26p pd=1.52u as=0.44p ps=2.88u w=1u l=0.28u
X6 VSS D Y VPW nfet_03v3 ad=0.26p pd=1.52u as=0.26p ps=1.52u w=1u l=0.28u
X7 a_28_440# D Y VNW pfet_03v3 ad=1.2696p pd=4.6u as=0.3588p ps=1.9u w=1.38u l=0.28u
X8 a_28_440# B VDD VNW pfet_03v3 ad=0.8004p pd=2.54u as=0.3588p ps=1.9u w=1.38u l=0.28u
X9 VDD C a_28_440# VNW pfet_03v3 ad=0.3588p pd=1.9u as=0.8004p ps=2.54u w=1.38u l=0.28u
X10 a_812_68# C Y VPW nfet_03v3 ad=0.26p pd=1.52u as=0.26p ps=1.52u w=1u l=0.28u
X11 a_812_68# B a_28_68# VPW nfet_03v3 ad=0.26p pd=1.52u as=0.26p ps=1.52u w=1u l=0.28u
X12 Y C a_812_68# VPW nfet_03v3 ad=0.26p pd=1.52u as=0.26p ps=1.52u w=1u l=0.28u
X13 a_28_440# C VDD VNW pfet_03v3 ad=0.3588p pd=1.9u as=0.3588p ps=1.9u w=1.38u l=0.28u
X14 VDD A a_28_440# VNW pfet_03v3 ad=0.3588p pd=1.9u as=0.3588p ps=1.9u w=1.38u l=0.28u
X15 Y C a_812_68# VPW nfet_03v3 ad=0.26p pd=1.52u as=0.26p ps=1.52u w=1u l=0.28u
X16 Y D VSS VPW nfet_03v3 ad=0.44p pd=2.88u as=0.26p ps=1.52u w=1u l=0.28u
X17 a_28_440# B VDD VNW pfet_03v3 ad=0.3588p pd=1.9u as=0.3588p ps=1.9u w=1.38u l=0.28u
X18 a_28_68# A VSS VPW nfet_03v3 ad=0.26p pd=1.52u as=0.26p ps=1.52u w=1u l=0.28u
X19 a_28_440# D Y VNW pfet_03v3 ad=0.3588p pd=1.9u as=0.3588p ps=1.9u w=1.38u l=0.28u
X20 a_28_68# B a_812_68# VPW nfet_03v3 ad=0.44p pd=2.88u as=0.26p ps=1.52u w=1u l=0.28u
X21 a_28_440# A VDD VNW pfet_03v3 ad=0.3588p pd=1.9u as=0.3588p ps=1.9u w=1.38u l=0.28u
X22 a_812_68# C Y VPW nfet_03v3 ad=0.26p pd=1.52u as=0.44p ps=2.88u w=1u l=0.28u
X23 Y D a_28_440# VNW pfet_03v3 ad=0.3588p pd=1.9u as=0.3588p ps=1.9u w=1.38u l=0.28u
X24 VSS A a_28_68# VPW nfet_03v3 ad=0.26p pd=1.52u as=0.26p ps=1.52u w=1u l=0.28u
X25 VSS D Y VPW nfet_03v3 ad=0.26p pd=1.52u as=0.26p ps=1.52u w=1u l=0.28u
X26 VDD B a_28_440# VNW pfet_03v3 ad=0.3588p pd=1.9u as=0.3588p ps=1.9u w=1.38u l=0.28u
X27 VDD C a_28_440# VNW pfet_03v3 ad=0.3588p pd=1.9u as=0.3588p ps=1.9u w=1.38u l=0.28u
X28 a_812_68# B a_28_68# VPW nfet_03v3 ad=0.26p pd=1.52u as=0.26p ps=1.52u w=1u l=0.28u
X29 VDD A a_28_440# VNW pfet_03v3 ad=0.3588p pd=1.9u as=0.6072p ps=3.64u w=1.38u l=0.28u
X30 Y D VSS VPW nfet_03v3 ad=0.26p pd=1.52u as=0.26p ps=1.52u w=1u l=0.28u
X31 a_28_68# A VSS VPW nfet_03v3 ad=0.26p pd=1.52u as=0.26p ps=1.52u w=1u l=0.28u
.ends

* NGSPICE file created from gf180mcu_as_sc_mcu7t3v3__buff_12.ext - technology: gf180mcuD

.subckt gf180mcu_as_sc_mcu7t3v3__buff_12 VDD VNW VPW VSS A Y
X0 VSS a_172_68# Y VPW nfet_03v3 ad=0.985p pd=3.97u as=0.26p ps=1.52u w=1u l=0.28u
X1 VSS a_172_68# Y VPW nfet_03v3 ad=0.26p pd=1.52u as=0.26p ps=1.52u w=1u l=0.28u
X2 VDD A a_172_68# VNW pfet_03v3 ad=0.3588p pd=1.9u as=0.3588p ps=1.9u w=1.38u l=0.28u
X3 Y a_172_68# VDD VNW pfet_03v3 ad=0.3588p pd=1.9u as=0.3588p ps=1.9u w=1.38u l=0.28u
X4 Y a_172_68# VDD VNW pfet_03v3 ad=0.3588p pd=1.9u as=0.3588p ps=1.9u w=1.38u l=0.28u
X5 VDD a_172_68# Y VNW pfet_03v3 ad=1.3593p pd=4.73u as=0.3588p ps=1.9u w=1.38u l=0.28u
X6 a_172_68# A VSS VPW nfet_03v3 ad=0.26p pd=1.52u as=0.44p ps=2.88u w=1u l=0.28u
X7 VSS a_172_68# Y VPW nfet_03v3 ad=0.26p pd=1.52u as=0.26p ps=1.52u w=1u l=0.28u
X8 VDD a_172_68# Y VNW pfet_03v3 ad=0.3588p pd=1.9u as=0.3588p ps=1.9u w=1.38u l=0.28u
X9 Y a_172_68# VDD VNW pfet_03v3 ad=0.36915p pd=1.915u as=0.3588p ps=1.9u w=1.38u l=0.28u
X10 VDD a_172_68# Y VNW pfet_03v3 ad=0.3588p pd=1.9u as=0.3588p ps=1.9u w=1.38u l=0.28u
X11 Y a_172_68# VSS VPW nfet_03v3 ad=0.26p pd=1.52u as=0.26p ps=1.52u w=1u l=0.28u
X12 Y a_172_68# VSS VPW nfet_03v3 ad=0.26p pd=1.52u as=0.26p ps=1.52u w=1u l=0.28u
X13 Y a_172_68# VDD VNW pfet_03v3 ad=0.3588p pd=1.9u as=0.3588p ps=1.9u w=1.38u l=0.28u
X14 Y a_172_68# VSS VPW nfet_03v3 ad=0.26p pd=1.52u as=0.26p ps=1.52u w=1u l=0.28u
X15 a_172_68# A VDD VNW pfet_03v3 ad=0.3588p pd=1.9u as=0.3588p ps=1.9u w=1.38u l=0.28u
X16 VSS a_172_68# Y VPW nfet_03v3 ad=0.26p pd=1.52u as=0.26p ps=1.52u w=1u l=0.28u
X17 VDD a_172_68# Y VNW pfet_03v3 ad=0.3588p pd=1.9u as=0.3588p ps=1.9u w=1.38u l=0.28u
X18 VSS A a_172_68# VPW nfet_03v3 ad=0.26p pd=1.52u as=0.26p ps=1.52u w=1u l=0.28u
X19 VSS a_172_68# Y VPW nfet_03v3 ad=0.26p pd=1.52u as=0.26p ps=1.52u w=1u l=0.28u
X20 VSS a_172_68# Y VPW nfet_03v3 ad=0.26p pd=1.52u as=0.2675p ps=1.535u w=1u l=0.28u
X21 VDD A a_172_68# VNW pfet_03v3 ad=0.3588p pd=1.9u as=0.3588p ps=1.9u w=1.38u l=0.28u
X22 Y a_172_68# VSS VPW nfet_03v3 ad=0.26p pd=1.52u as=0.26p ps=1.52u w=1u l=0.28u
X23 Y a_172_68# VDD VNW pfet_03v3 ad=0.3588p pd=1.9u as=0.3588p ps=1.9u w=1.38u l=0.28u
X24 a_172_68# A VSS VPW nfet_03v3 ad=0.26p pd=1.52u as=0.26p ps=1.52u w=1u l=0.28u
X25 Y a_172_68# VDD VNW pfet_03v3 ad=0.3588p pd=1.9u as=0.3588p ps=1.9u w=1.38u l=0.28u
X26 VDD a_172_68# Y VNW pfet_03v3 ad=0.3588p pd=1.9u as=0.3588p ps=1.9u w=1.38u l=0.28u
X27 Y a_172_68# VSS VPW nfet_03v3 ad=0.26p pd=1.52u as=0.26p ps=1.52u w=1u l=0.28u
X28 a_172_68# A VDD VNW pfet_03v3 ad=0.3588p pd=1.9u as=0.6072p ps=3.64u w=1.38u l=0.28u
X29 VDD a_172_68# Y VNW pfet_03v3 ad=0.3588p pd=1.9u as=0.36915p ps=1.915u w=1.38u l=0.28u
X30 VSS A a_172_68# VPW nfet_03v3 ad=0.26p pd=1.52u as=0.26p ps=1.52u w=1u l=0.28u
X31 Y a_172_68# VSS VPW nfet_03v3 ad=0.2675p pd=1.535u as=0.26p ps=1.52u w=1u l=0.28u
.ends

* NGSPICE file created from gf180mcu_as_sc_mcu7t3v3__buff_2.ext - technology: gf180mcuD

.subckt gf180mcu_as_sc_mcu7t3v3__buff_2 VDD VNW VPW VSS A Y
X0 Y a_28_68# VDD VNW pfet_03v3 ad=0.3588p pd=1.9u as=0.3588p ps=1.9u w=1.38u l=0.28u
X1 VSS A a_28_68# VPW nfet_03v3 ad=0.26p pd=1.52u as=0.44p ps=2.88u w=1u l=0.28u
X2 VDD a_28_68# Y VNW pfet_03v3 ad=1.0488p pd=4.28u as=0.3588p ps=1.9u w=1.38u l=0.28u
X3 VSS a_28_68# Y VPW nfet_03v3 ad=0.76p pd=3.52u as=0.26p ps=1.52u w=1u l=0.28u
X4 VDD A a_28_68# VNW pfet_03v3 ad=0.3588p pd=1.9u as=0.6072p ps=3.64u w=1.38u l=0.28u
X5 Y a_28_68# VSS VPW nfet_03v3 ad=0.26p pd=1.52u as=0.26p ps=1.52u w=1u l=0.28u
.ends

* NGSPICE file created from gf180mcu_as_sc_mcu7t3v3__buff_4.ext - technology: gf180mcuD

.subckt gf180mcu_as_sc_mcu7t3v3__buff_4 VDD VNW VPW VSS A Y
X0 Y a_28_68# VDD VNW pfet_03v3 ad=0.3588p pd=1.9u as=0.3588p ps=1.9u w=1.38u l=0.28u
X1 VDD a_28_68# Y VNW pfet_03v3 ad=1.1592p pd=4.44u as=0.3588p ps=1.9u w=1.38u l=0.28u
X2 VSS A a_28_68# VPW nfet_03v3 ad=0.26p pd=1.52u as=0.44p ps=2.88u w=1u l=0.28u
X3 VSS a_28_68# Y VPW nfet_03v3 ad=0.84p pd=3.68u as=0.26p ps=1.52u w=1u l=0.28u
X4 VDD a_28_68# Y VNW pfet_03v3 ad=0.3588p pd=1.9u as=0.3588p ps=1.9u w=1.38u l=0.28u
X5 Y a_28_68# VSS VPW nfet_03v3 ad=0.26p pd=1.52u as=0.26p ps=1.52u w=1u l=0.28u
X6 Y a_28_68# VDD VNW pfet_03v3 ad=0.3588p pd=1.9u as=0.3588p ps=1.9u w=1.38u l=0.28u
X7 VSS a_28_68# Y VPW nfet_03v3 ad=0.26p pd=1.52u as=0.26p ps=1.52u w=1u l=0.28u
X8 VDD A a_28_68# VNW pfet_03v3 ad=0.3588p pd=1.9u as=0.6072p ps=3.64u w=1.38u l=0.28u
X9 Y a_28_68# VSS VPW nfet_03v3 ad=0.26p pd=1.52u as=0.26p ps=1.52u w=1u l=0.28u
.ends

* NGSPICE file created from gf180mcu_as_sc_mcu7t3v3__buff_8.ext - technology: gf180mcuD

.subckt gf180mcu_as_sc_mcu7t3v3__buff_8 VDD VNW VPW VSS A Y
X0 VSS a_172_68# Y VPW nfet_03v3 ad=0.26p pd=1.52u as=0.26p ps=1.52u w=1u l=0.28u
X1 VDD A a_172_68# VNW pfet_03v3 ad=0.3588p pd=1.9u as=0.3588p ps=1.9u w=1.38u l=0.28u
X2 Y a_172_68# VDD VNW pfet_03v3 ad=0.3588p pd=1.9u as=0.3588p ps=1.9u w=1.38u l=0.28u
X3 a_172_68# A VSS VPW nfet_03v3 ad=0.26p pd=1.52u as=0.44p ps=2.88u w=1u l=0.28u
X4 VSS a_172_68# Y VPW nfet_03v3 ad=0.26p pd=1.52u as=0.26p ps=1.52u w=1u l=0.28u
X5 VDD a_172_68# Y VNW pfet_03v3 ad=0.3588p pd=1.9u as=0.3588p ps=1.9u w=1.38u l=0.28u
X6 Y a_172_68# VDD VNW pfet_03v3 ad=1.4904p pd=4.92u as=0.3588p ps=1.9u w=1.38u l=0.28u
X7 Y a_172_68# VSS VPW nfet_03v3 ad=0.26p pd=1.52u as=0.26p ps=1.52u w=1u l=0.28u
X8 Y a_172_68# VDD VNW pfet_03v3 ad=0.3588p pd=1.9u as=0.3588p ps=1.9u w=1.38u l=0.28u
X9 Y a_172_68# VSS VPW nfet_03v3 ad=0.26p pd=1.52u as=0.26p ps=1.52u w=1u l=0.28u
X10 a_172_68# A VDD VNW pfet_03v3 ad=0.3588p pd=1.9u as=0.3588p ps=1.9u w=1.38u l=0.28u
X11 VDD a_172_68# Y VNW pfet_03v3 ad=0.3588p pd=1.9u as=0.3588p ps=1.9u w=1.38u l=0.28u
X12 VSS a_172_68# a_172_68# VPW nfet_03v3 ad=0.26p pd=1.52u as=0.26p ps=1.52u w=1u l=0.28u
X13 VSS a_172_68# Y VPW nfet_03v3 ad=0.26p pd=1.52u as=0.26p ps=1.52u w=1u l=0.28u
X14 VDD a_172_68# a_172_68# VNW pfet_03v3 ad=0.3588p pd=1.9u as=0.3588p ps=1.9u w=1.38u l=0.28u
X15 a_172_68# A VSS VPW nfet_03v3 ad=0.26p pd=1.52u as=0.26p ps=1.52u w=1u l=0.28u
X16 Y a_172_68# VDD VNW pfet_03v3 ad=0.3588p pd=1.9u as=0.3588p ps=1.9u w=1.38u l=0.28u
X17 VDD a_172_68# Y VNW pfet_03v3 ad=0.3588p pd=1.9u as=0.3588p ps=1.9u w=1.38u l=0.28u
X18 Y a_172_68# VSS VPW nfet_03v3 ad=0.26p pd=1.52u as=0.26p ps=1.52u w=1u l=0.28u
X19 a_172_68# A VDD VNW pfet_03v3 ad=0.3588p pd=1.9u as=0.6072p ps=3.64u w=1.38u l=0.28u
X20 VSS A a_172_68# VPW nfet_03v3 ad=0.26p pd=1.52u as=0.26p ps=1.52u w=1u l=0.28u
X21 Y a_172_68# VSS VPW nfet_03v3 ad=1.08p pd=4.16u as=0.26p ps=1.52u w=1u l=0.28u
.ends

* NGSPICE file created from gf180mcu_as_sc_mcu7t3v3__clkbuff_12.ext - technology: gf180mcuD

.subckt gf180mcu_as_sc_mcu7t3v3__clkbuff_12 VDD VNW VPW VSS A Y
X0 VSS a_172_68# Y VPW nfet_03v3 ad=0.7092p pd=3.41u as=0.1872p ps=1.24u w=0.72u l=0.28u
X1 VSS a_172_68# Y VPW nfet_03v3 ad=0.1872p pd=1.24u as=0.1872p ps=1.24u w=0.72u l=0.28u
X2 VDD A a_172_68# VNW pfet_03v3 ad=0.3588p pd=1.9u as=0.3588p ps=1.9u w=1.38u l=0.28u
X3 Y a_172_68# VDD VNW pfet_03v3 ad=0.3588p pd=1.9u as=0.3588p ps=1.9u w=1.38u l=0.28u
X4 Y a_172_68# VDD VNW pfet_03v3 ad=0.3588p pd=1.9u as=0.3588p ps=1.9u w=1.38u l=0.28u
X5 VDD a_172_68# Y VNW pfet_03v3 ad=1.3593p pd=4.73u as=0.3588p ps=1.9u w=1.38u l=0.28u
X6 a_172_68# A VSS VPW nfet_03v3 ad=0.1872p pd=1.24u as=0.3168p ps=2.32u w=0.72u l=0.28u
X7 VSS a_172_68# Y VPW nfet_03v3 ad=0.1872p pd=1.24u as=0.1872p ps=1.24u w=0.72u l=0.28u
X8 VDD a_172_68# Y VNW pfet_03v3 ad=0.3588p pd=1.9u as=0.3588p ps=1.9u w=1.38u l=0.28u
X9 Y a_172_68# VDD VNW pfet_03v3 ad=0.36915p pd=1.915u as=0.3588p ps=1.9u w=1.38u l=0.28u
X10 VDD a_172_68# Y VNW pfet_03v3 ad=0.3588p pd=1.9u as=0.3588p ps=1.9u w=1.38u l=0.28u
X11 Y a_172_68# VSS VPW nfet_03v3 ad=0.1872p pd=1.24u as=0.1872p ps=1.24u w=0.72u l=0.28u
X12 Y a_172_68# VSS VPW nfet_03v3 ad=0.1872p pd=1.24u as=0.1872p ps=1.24u w=0.72u l=0.28u
X13 Y a_172_68# VDD VNW pfet_03v3 ad=0.3588p pd=1.9u as=0.3588p ps=1.9u w=1.38u l=0.28u